9

C    0.00000000  0.00000000  0.00000000
C   -1.16466700  0.90771900  0.00000000
O   -2.35786700  0.35888900  0.00000000
H   -3.09446300  0.99855100  0.00000000
H   -1.08519200  1.84579600  0.70319800
H   -1.08519200  1.84579600 -0.70319800
H    0.93365600  0.55974700  0.00000000
H   -0.04960900 -0.64385100  0.88376100
H   -0.04960900 -0.64385100 -0.88376100
